Version 4.1
SHEET 1 3936 680
WIRE 1600 -208 1440 -208
WIRE 1936 -208 1680 -208
WIRE 1616 -160 1584 -160
WIRE 1696 -160 1664 -160
WIRE 1584 -64 1584 -160
WIRE 1600 -64 1584 -64
WIRE 1696 -64 1696 -160
WIRE 1696 -64 1680 -64
WIRE 992 -48 880 -48
WIRE 1120 -48 992 -48
WIRE 16 16 -144 16
WIRE 256 16 96 16
WIRE 384 16 384 0
WIRE 384 16 336 16
WIRE 512 16 384 16
WIRE 736 16 640 16
WIRE 880 16 880 -48
WIRE 880 16 736 16
WIRE 1200 16 1168 16
WIRE 1248 16 1200 16
WIRE 1280 16 1248 16
WIRE 1440 16 1440 -208
WIRE 992 32 992 -48
WIRE 1120 32 1120 -48
WIRE 1200 32 1200 16
WIRE 1248 32 1248 16
WIRE -144 48 -144 16
WIRE 1440 48 1440 16
WIRE 1472 48 1440 48
WIRE 1504 48 1472 48
WIRE 1872 48 1760 48
WIRE 1904 48 1872 48
WIRE 1936 48 1936 -208
WIRE 1936 48 1904 48
WIRE 2144 48 1936 48
WIRE 2368 48 2144 48
WIRE 2464 48 2368 48
WIRE 2528 48 2464 48
WIRE 2608 48 2528 48
WIRE 2608 64 2608 48
WIRE 512 80 512 16
WIRE 640 80 640 16
WIRE 1904 80 1904 48
WIRE 2144 80 2144 48
WIRE 2528 80 2528 48
WIRE 2368 96 2368 48
WIRE 992 112 992 96
WIRE 992 112 928 112
WIRE 1120 128 1120 96
WIRE 1168 128 1168 16
WIRE 1168 128 1120 128
WIRE 1200 128 1200 96
WIRE 1248 128 1248 96
WIRE 992 144 992 112
WIRE 1120 144 1120 128
WIRE 1440 144 1440 48
WIRE 1504 144 1440 144
WIRE 2464 160 2464 48
WIRE 640 176 640 160
WIRE 880 176 640 176
WIRE 512 192 512 160
WIRE -144 208 -144 128
WIRE 2368 224 2368 160
WIRE 2416 224 2368 224
WIRE 1504 240 1440 240
WIRE 1904 240 1904 160
WIRE 1904 240 1760 240
WIRE 2368 256 2368 224
WIRE 880 272 880 176
WIRE 992 272 992 208
WIRE 992 272 880 272
WIRE 1120 272 1120 208
WIRE 1120 272 992 272
WIRE 1904 288 1904 240
WIRE 1376 320 1376 240
WIRE 1376 320 1296 320
WIRE 1632 320 1632 304
WIRE 1632 320 1376 320
WIRE 928 336 928 112
WIRE 1296 336 1296 320
WIRE 1296 336 928 336
WIRE -144 352 -144 288
WIRE 1296 384 1296 336
WIRE 1904 384 1904 368
WIRE 2144 384 2144 144
WIRE 2144 384 1904 384
WIRE 2368 384 2368 336
WIRE 2368 384 2144 384
WIRE 2464 384 2464 224
WIRE 2464 384 2368 384
WIRE 2528 384 2528 144
WIRE 2528 384 2464 384
WIRE 2608 384 2608 144
WIRE 2608 384 2528 384
WIRE 1904 400 1904 384
WIRE -144 480 -144 432
FLAG -144 480 0
FLAG 384 0 acIn
FLAG 736 16 acOut
FLAG 512 192 0
FLAG 1296 384 0
FLAG 1904 400 0
FLAG 1248 128 0
FLAG 1472 48 dcIn
FLAG 1872 48 dcOut
FLAG 1200 128 0
DATAFLAG -144 336 ""
SYMBOL voltage -144 336 R0
WINDOW 123 0 0 Left 0
WINDOW 39 0 0 Left 0
SYMATTR InstName V1
SYMATTR Value SINE(0 170 60)
SYMBOL bv 352 16 R90
WINDOW 0 -32 56 VBottom 2
WINDOW 3 32 56 VTop 2
SYMATTR InstName B1
SYMATTR Value V= white(5e7*time)*5
SYMBOL voltage -144 32 R0
WINDOW 123 0 0 Left 0
WINDOW 39 24 124 Left 2
SYMATTR InstName V2
SYMATTR Value SINE(0 5 300)
SYMBOL voltage -144 192 R0
WINDOW 123 0 0 Left 0
WINDOW 39 0 0 Left 0
SYMATTR InstName V3
SYMATTR Value SINE(0 1 180)
SYMBOL ind 496 64 R0
WINDOW 3 39 115 Left 2
SYMATTR Value 64”
SYMATTR InstName L1
SYMATTR SpiceLine Rser=0.0001
SYMBOL ind 656 176 R180
WINDOW 0 36 80 Left 2
WINDOW 3 30 121 Left 2
SYMATTR InstName L2
SYMATTR Value 1”
SYMBOL diode 1008 96 R180
WINDOW 0 24 64 Left 2
WINDOW 3 24 0 Left 2
SYMATTR InstName D1
SYMATTR Value 1N914
SYMBOL diode 1104 32 R0
WINDOW 3 -79 -1 Left 2
SYMATTR InstName D2
SYMATTR Value 1N914
SYMBOL diode 976 144 R0
WINDOW 3 20 90 Left 2
SYMATTR Value 1N914
SYMATTR InstName D3
SYMBOL diode 1136 208 R180
WINDOW 0 24 64 Left 2
WINDOW 3 -68 -31 Left 2
SYMATTR InstName D4
SYMATTR Value 1N914
SYMBOL PowerProducts\\ADP7142 1632 144 R0
SYMATTR InstName U1
SYMBOL cap 1232 32 R0
SYMATTR InstName C1
SYMATTR Value 200”
SYMBOL cap 1440 224 R90
WINDOW 0 0 32 VBottom 2
WINDOW 3 32 32 VTop 2
SYMATTR InstName C2
SYMATTR Value 4.7n
SYMBOL res 1888 272 R0
SYMATTR InstName R1
SYMATTR Value 10k
SYMBOL res 1888 64 R0
SYMATTR InstName R2
SYMATTR Value 90k
SYMBOL cap 2128 80 R0
WINDOW 3 32 45 Left 2
SYMATTR InstName C3
SYMATTR Value 2.2”
SYMBOL res 2592 48 R0
SYMATTR InstName R3
SYMATTR Value 266.66
SYMBOL TVSdiode 1184 32 R0
WINDOW 0 3 -38 Left 2
WINDOW 3 -12 130 Left 2
SYMATTR InstName D5
SYMATTR Value SMBJ24CA
SYMBOL voltage 112 16 R90
WINDOW 0 -32 56 VBottom 2
WINDOW 3 32 56 VTop 2
WINDOW 123 0 0 Left 0
WINDOW 39 0 0 Left 0
SYMATTR InstName V4
SYMATTR Value PULSE(0 1 40m 1m 1m)
SYMBOL zener 2384 160 R180
WINDOW 0 24 64 Left 2
WINDOW 3 24 0 Left 2
SYMATTR InstName D6
SYMATTR Value BZX84C13VLY
SYMBOL res 2352 240 R0
SYMATTR InstName R4
SYMATTR Value 56
SYMBOL Misc\\SCR 2448 160 R0
SYMATTR InstName U2
SYMATTR Value S602ES
SYMBOL sw 1584 -208 R270
SYMATTR InstName S1
SYMATTR Value short
SYMBOL voltage 1696 -64 R90
WINDOW 0 -32 56 VBottom 2
WINDOW 3 32 56 VTop 2
WINDOW 123 0 0 Left 0
WINDOW 39 0 0 Left 0
SYMATTR InstName V5
SYMATTR Value PULSE(0 1 300m 0 0 50m)
SYMBOL cap 2512 80 R0
SYMATTR InstName C4
SYMATTR Value 100”
SYMBOL res 1344 32 R270
WINDOW 0 32 56 VTop 2
WINDOW 3 85 118 VBottom 2
SYMATTR InstName R5
SYMATTR Value fuse4amp
SYMATTR Prefix x
SYMBOL res 1264 32 R270
WINDOW 0 32 56 VTop 2
WINDOW 3 0 56 VBottom 2
SYMATTR InstName R6
SYMATTR Value 0.01
TEXT -40 -160 Left 2 !.tran 0.2
TEXT 528 320 Left 2 !K L1 L2 1
TEXT 1136 -360 Left 2 !.options abstol=1n reltol=0.01 vntol=1m
TEXT 2720 0 Left 2 !.include ../../../libLtSpice/littleFuse.lib
TEXT 1952 -296 Left 2 !.model short SW(Ron=0.01 Roff=1000G Vt=0.5)
TEXT 2752 -224 Left 2 !.meas tran Vmax MAX V(dcOut)
TEXT 2728 264 Left 2 !.subckt fuse4amp 1 2\nV_sense 1 3 0V\nS_fuse 3 2 blow 0 fuse_model\nB_trigger 0 blow I=if(abs(I(V_sense))>4, 1, 0)\nC_memory blow 0 1n\n.model fuse_model SW(Ron=100Meg Roff=0.01 Vt=0.5)\n.ends 10A_Fuse
TEXT 2152 600 Left 2 !.meas tran I_RMS_L2 RMS I(L2) FROM 100m TO 200m
TEXT 2744 104 Left 2 ;Imax selon datasheet (45mA)\n12V/(45mA) = 266 ohms
